
Note: No compatibility mode selected!


Circuit: test opamp acdc

Doing analysis at TEMP = 27.000000 and TNOM = 27.000000

Using SPARSE 1.3 as Direct Linear Solver
Note: Starting dynamic gmin stepping
Note: Dynamic gmin stepping completed

No. of Data Rows : 166
maxval              =  7.224587e-01 at=  -4.000000e+01
minval              =  7.198107e-01 at=  1.250000e+02
avgval              =  7.204112e-01 from=  -4.000000e+01 to=  1.250000e+02
ppavl               =  2.648028e-03 from=  -4.000000e+01 to=  1.250000e+02
ivdd25              =  -5.938802e-05
vout25              =  7.203321e-01

Warning: command 'plot' is not available during batch simulation, ignored!
    You may use Gnuplot instead.

Doing analysis at TEMP = 27.000000 and TNOM = 27.000000

Using SPARSE 1.3 as Direct Linear Solver
Note: Starting dynamic gmin stepping
Note: Dynamic gmin stepping completed

No. of Data Rows : 101
cmrrdc              =  -4.172536e+01
dcgain_             =  1.093399e+02
gain_bandwidth_product_=  5.645670e+05
phase_margin        =  8.756670e+01
dcpsrp              =  -4.169847e+01
dcpsrn              =  -9.080444e+01

Warning: command 'plot' is not available during batch simulation, ignored!
    You may use Gnuplot instead.

Doing analysis at TEMP = 27.000000 and TNOM = 27.000000

Using SPARSE 1.3 as Direct Linear Solver
Note: Starting dynamic gmin stepping
Note: Dynamic gmin stepping completed

No. of Data Rows : 1
AMP_new/AMP_NMCNR/AMP_NMCNR_op: No such file or directory
Note: Simulation executed from .control section 
