
Note: No compatibility mode selected!


Circuit: test opamp tran

Doing analysis at TEMP = 27.000000 and TNOM = 27.000000

Using SPARSE 1.3 as Direct Linear Solver
Note: Starting dynamic gmin stepping
Note: Dynamic gmin stepping completed

Initial Transient Solution
--------------------------

Node                                   Voltage
----                                   -------
vdd                                        1.8
vss                                          0
visr                                       0.3
vout3                                 0.299847
x1.net013                             0.728306
x1.net049                              0.85543
x1.net043                             0.644242
x1.net050                             0.731205
x1.voutn                              0.808663
x1.net063                             0.100284
x1.net31                               1.43647
x1.dm_2                               0.100937
x1.vb3                                0.646218
x1.dm_1                               0.587614
x1.vb4                                0.587614
x1.net54                             0.0589791
x1.net56                             0.0589791
x1.net044                             0.299847
vvisr#branch                                 0
v2#branch                          6.18881e-05
v1#branch                         -6.18881e-05


No. of Data Rows : 468
t_rise_edge         =  1.141413e-06
t_rise = 1.414130e-07
sr_rise = 7.071486e+05
t_fall_edge         =  2.011863e-04
t_fall = 1.863000e-07
sr_fall = 5.367687e+05

Warning: command 'plot' is not available during batch simulation, ignored!
    You may use Gnuplot instead.

ASCII raw file "tran.dat"
Doing analysis at TEMP = 27.000000 and TNOM = 27.000000

Using SPARSE 1.3 as Direct Linear Solver
Note: Starting dynamic gmin stepping
Note: Dynamic gmin stepping completed

No. of Data Rows : 1
AMP_new/AMP_NMCNR/AMP_NMCNR_op: No such file or directory
Note: Simulation executed from .control section 
